# generated using pymatgen
data_TbBiTe3
_symmetry_space_group_name_H-M   'P 1'
_cell_length_a   10.84725989
_cell_length_b   10.84725989
_cell_length_c   10.84726060
_cell_angle_alpha   23.48596893
_cell_angle_beta   23.48596893
_cell_angle_gamma   23.48597292
_symmetry_Int_Tables_number   1
_chemical_formula_structural   TbBiTe3
_chemical_formula_sum   'Tb1 Bi1 Te3'
_cell_volume   178.00674936
_cell_formula_units_Z   1
loop_
 _symmetry_equiv_pos_site_id
 _symmetry_equiv_pos_as_xyz
  1  'x, y, z'
loop_
 _atom_site_type_symbol
 _atom_site_label
 _atom_site_symmetry_multiplicity
 _atom_site_fract_x
 _atom_site_fract_y
 _atom_site_fract_z
 _atom_site_occupancy
  Tb  Tb0  1  0.60144100  0.60144100  0.60144100  1
  Bi  Bi1  1  0.39934000  0.39934000  0.39934000  1
  Te  Te2  1  0.99633300  0.99633300  0.99633300  1
  Te  Te3  1  0.78634000  0.78634000  0.78634000  1
  Te  Te4  1  0.21654600  0.21654600  0.21654600  1
