# generated using pymatgen
data_HoSi3Ir
_symmetry_space_group_name_H-M   'P 1'
_cell_length_a   5.70455545
_cell_length_b   5.70455545
_cell_length_c   5.70455545
_cell_angle_alpha   137.24596556
_cell_angle_beta   137.24596556
_cell_angle_gamma   62.05982257
_symmetry_Int_Tables_number   1
_chemical_formula_structural   HoSi3Ir
_chemical_formula_sum   'Ho1 Si3 Ir1'
_cell_volume   84.53909359
_cell_formula_units_Z   1
loop_
 _symmetry_equiv_pos_site_id
 _symmetry_equiv_pos_as_xyz
  1  'x, y, z'
loop_
 _atom_site_type_symbol
 _atom_site_label
 _atom_site_symmetry_multiplicity
 _atom_site_fract_x
 _atom_site_fract_y
 _atom_site_fract_z
 _atom_site_occupancy
  Ho  Ho0  1  0.99768318  0.99768318  0.00000000  1
  Si  Si1  1  0.41446886  0.41446886  0.00000000  1
  Si  Si2  1  0.26510922  0.76510922  0.50000000  1
  Si  Si3  1  0.76510922  0.26510922  0.50000000  1
  Ir  Ir4  1  0.65163053  0.65163053  0.00000000  1
