# generated using pymatgen
data_EuHfO3
_symmetry_space_group_name_H-M   'P 1'
_cell_length_a   4.09768332
_cell_length_b   4.09766316
_cell_length_c   4.09771369
_cell_angle_alpha   89.99898543
_cell_angle_beta   89.99935178
_cell_angle_gamma   90.00050728
_symmetry_Int_Tables_number   1
_chemical_formula_structural   EuHfO3
_chemical_formula_sum   'Eu1 Hf1 O3'
_cell_volume   68.80440725
_cell_formula_units_Z   1
loop_
 _symmetry_equiv_pos_site_id
 _symmetry_equiv_pos_as_xyz
  1  'x, y, z'
loop_
 _atom_site_type_symbol
 _atom_site_label
 _atom_site_symmetry_multiplicity
 _atom_site_fract_x
 _atom_site_fract_y
 _atom_site_fract_z
 _atom_site_occupancy
  Eu  Eu0  1  0.99999900  0.99999900  0.00000200  1
  Hf  Hf1  1  0.50000000  0.50000100  0.50000000  1
  O  O2  1  0.99999900  0.50000100  0.49999900  1
  O  O3  1  0.50000100  0.00000000  0.50000000  1
  O  O4  1  0.50000100  0.49999900  -0.00000000  1
